test/data/enwl/networks/network_22/Feeder_3/LineCode.txt
New LineCode..007 nphases=3 R1=3.97 X1=0.099 R0=3.97 X0=0.099 C1=0 C0=0 Units=km
New LineCode.16_PC nphases=3 R1=1.15 X1=0.083 R0=1.2 X0=0.083 C1=0 C0=0 Units=km
New LineCode.25_PSC nphases=3 R1=0.727 X1=0.092 R0=0.76 X0=0.092 C1=0 C0=0 Units=km
New LineCode.2c_.0225 nphases=3 R1=1.257 X1=0.085 R0=1.257 X0=0.085 C1=0 C0=0 Units=km
New LineCode.2c_.1 nphases=3 R1=0.274 X1=0.073 R0=0.274 X0=0.073 C1=0 C0=0 Units=km
New LineCode.3c_95_SAC_ASN nphases=3 R1=0.322 X1=0.069 R0=1.201 X0=0.097 C1=0 C0=0 Units=km
New LineCode.3c_95_SAC_XC nphases=3 R1=0.322 X1=0.074 R0=1.282 X0=0.125 C1=0 C0=0 Units=km
New LineCode.4_PC nphases=3 R1=4.61 X1=0.094 R0=4.8 X0=0.094 C1=0 C0=0 Units=km
New LineCode.4_XC nphases=3 R1=4.61 X1=0.091 R0=4.8 X0=0.091 C1=0 C0=0 Units=km
New LineCode.4_XC nphases=3 R1=4.61 X1=0.091 R0=4.8 X0=0.091 C1=0 C0=0 Units=km
New LineCode.4_XC nphases=3 R1=4.61 X1=0.091 R0=4.8 X0=0.091 C1=0 C0=0 Units=km
New LineCode.4c_.0225 nphases=3 R1=1.257 X1=0.086 R0=3.83 X0=0.102 C1=0 C0=0 Units=km
New LineCode.4c_.1 nphases=3 R1=0.274 X1=0.073 R0=0.959 X0=0.079 C1=0 C0=0 Units=km
New LineCode.4c_.2_AS nphases=3 R1=0.15 X1=0.069 R0=0.533 X0=0.078 C1=0 C0=0 Units=km
